src/applications/data_sets/raw/IEEE145.raw
0  100.000


      1, 3,  9173.000,  1555.000,  -999.000,   457.000,   1,1.05200,   5.0200,'BUS-1       ',100.0000,   2
      2, 2,    30.200,     7.600,     0.000,     0.000,   1,1.00590,  13.6800,'BUS-2       ',100.0000,   2
      3, 2,    96.000,   167.400,    24.200,  -999.000,   1,1.00700,  -2.8000,'BUS-3       ',100.0000,   2
      4, 2,    64.000,    16.000,    36.900,  -719.000,   1,1.00500,  -2.7500,'BUS-4       ',100.0000,   2
      5, 2,   100.400,    73.200,     0.000,     0.000,   1,1.00000,  -1.3100,'BUS-5       ',100.0000,   2
      6, 2,    60.400,  1166.000,    23.300,  -999.000,   1,1.00000,   7.9700,'BUS-6       ',100.0000,   2
      7, 2,     0.000,     0.000,   201.000,   165.000,   1,1.13700,  -6.3700,'BUS-7       ',100.0000,   2
      8, 2,     0.000,     0.000,  1821.000,  1280.000,   1,1.09000,  -5.6600,'BUS-8       ',100.0000,   2
      9, 2,     9.100,     3.000,   238.000,    27.100,   1,1.05200,  -9.5100,'BUS-9       ',100.0000,   2
     10, 2,    17.100,     5.000,    -0.080,    29.900,   1,1.06900,  -8.2100,'BUS-10      ',100.0000,   2
     11, 2,     2.100,     1.100,   111.000,   -28.000,   1,0.97500, -18.6600,'BUS-11      ',100.0000,   2
     12, 2,     0.600,     0.200,   678.000,    71.100,   1,1.06600,   3.6800,'BUS-12      ',100.0000,   2
     13, 2,     4.600,     1.500,    29.500,   -19.000,   1,0.95000,  -7.3500,'BUS-13      ',100.0000,   2
     14, 2,     0.000,     0.000,    19.300,   -27.000,   1,1.00000,  -9.2800,'BUS-14      ',100.0000,   2
     15, 2,    15.400,     7.600,   140.000,  -141.000,   1,1.02000,  -0.7400,'BUS-15      ',100.0000,   2
     16, 2,     6.700,     2.200,    27.200,   -58.000,   1,0.92000,  18.8800,'BUS-16      ',100.0000,   2
     17, 2,     0.000,     0.000,    47.800,   -45.000,   1,1.00000,  -8.9800,'BUS-17      ',100.0000,   2
     18, 2,     0.000,     0.000,   129.000,  -177.000,   1,0.96700,  -4.3400,'BUS-18      ',100.0000,   2
     19, 2,     0.000,     0.000,    82.100,  -121.000,   1,0.97000,   5.1900,'BUS-19      ',100.0000,   2
     20, 2,    10.460,     5.230,     0.000,     0.000,   1,1.00000,   1.1000,'BUS-20      ',100.0000,   2
     21, 2,     0.000,     0.000,    59.100,  -101.000,   1,1.01400,   0.7000,'BUS-21      ',100.0000,   2
     22, 2,    17.800,     4.500,    64.700,  -238.000,   1,1.03900,  -6.0900,'BUS-22      ',100.0000,   2
     23, 2,    37.600,     9.200,   458.000,  -619.000,   1,1.01900,  -4.7600,'BUS-23      ',100.0000,   2
     24, 2,     0.000,     0.000,    62.400,   -45.000,   1,1.00000,   1.5100,'BUS-24      ',100.0000,   2
     25, 2,     0.000,     0.000,   520.000,  -244.000,   1,1.01400, -14.0300,'BUS-25      ',100.0000,   2
     26, 2,     0.000,     0.000,    84.500,   -47.000,   1,0.91500, -18.4600,'BUS-26      ',100.0000,   2
     27, 2,    18.600,     4.600,    64.300,  -236.000,   1,1.03700,  -6.2600,'BUS-27      ',100.0000,   2
     28, 2,   683.500,   184.700,  2856.000,     9.410,   1,1.04900, -15.6100,'BUS-28      ',100.0000,   2
     29, 2,   792.600,   315.500,  1930.000,  -195.000,   1,1.04300, -16.8600,'BUS-29      ',100.0000,   2
     30, 2,   485.300,    71.400,  2410.000,   -54.000,   1,1.03000, -15.3200,'BUS-30      ',100.0000,   2
     31, 2,   651.900,   328.400,  4788.000,  -979.000,   1,1.01000, -17.7900,'BUS-31      ',100.0000,   2
     32, 2,  2094.000,  3774.000,  9999.000,  -999.000,   1,1.01300, -59.4100,'BUS-32      ',100.0000,   2
     33, 2,   237.700,   -17.300,   306.000,  1055.000,   1,1.04600, -20.2000,'BUS-33      ',100.0000,   2
     34, 2,    29.200,     7.000,   397.000,   -61.000,   1,1.00000,  -2.7900,'BUS-34      ',100.0000,   2
     35, 2,    94.100,   780.300,   766.000,  -999.000,   1,1.00000,  -1.8900,'BUS-35      ',100.0000,   2
     36, 2,  4075.000,   703.500,  5252.000,  -472.000,   1,1.02500, -39.7100,'BUS-36      ',100.0000,   2
     37, 2,  4328.000,   944.300,  3830.000,   -91.000,   1,1.05700, -51.8700,'BUS-37      ',100.0000,   2
     38, 2, 21840.000,  4320.000,  5145.000,  -780.000,   1,1.04200, -24.3200,'BUS-38      ',100.0000,   2
     39, 2,   491.900,   110.200,  1239.000,  -226.000,   1,1.04200,  -7.2400,'BUS-39      ',100.0000,   2
     40, 2,   223.090,   740.200,  -141.000,   -78.000,   1,1.04400, -10.8200,'BUS-40      ',100.0000,   2
     41, 2,  4298.000,  1264.000,  -999.000,   835.000,   1,1.10700,  29.0400,'BUS-41      ',100.0000,   2
     42, 2,   529.510, 13552.000,  -999.000,   375.000,   1,1.08300,   4.3900,'BUS-42      ',100.0000,   2
     43, 2,   129.460,   260.800,   499.000,  -219.000,   1,1.06400, -72.7300,'BUS-43      ',100.0000,   2
     44, 2, 57718.000, 13936.000,  1609.000,  -999.000,   1,1.04000, -10.5600,'BUS-44      ',100.0000,   2
     45, 2, 24775.000,  6676.000,  -289.000,   -77.000,   1,1.05000, -26.1600,'BUS-45      ',100.0000,   2
     46, 2,   327.990, 11361.000,  5212.000,  -999.000,   1,1.05300,  -9.1200,'BUS-46      ',100.0000,   2
     47, 2, 17737.000,  3934.000,  4323.000,  2210.000,   1,1.15500, -10.7300,'BUS-47      ',100.0000,   2
     48, 2,  4672.000,  1709.000,   586.000,  -999.000,   1,1.03100, -13.6600,'BUS-48      ',100.0000,   2
     49, 2,  9602.000,  2203.000,  -436.000,  -999.000,   1,0.99700,  -8.5800,'BUS-49      ',100.0000,   2
     50, 2,   100.400,    73.200,     0.000,     0.000,   1,1.00000,  -1.9200,'BUS-50      ',100.0000,   2
     51, 1,    58.450,    28.440,     0.000,     0.000,   1,1.11240, -10.1600,'BUS-51      ',100.0000,   2
     52, 1,     0.000,     0.000,    23.000,    -9.700,   1,1.11180, -11.1300,'BUS-52      ',100.0000,   2
     53, 1,     0.000,     0.000,    23.200,    -9.700,   1,1.11180, -11.1300,'BUS-53      ',100.0000,   2
     54, 1,     0.000,     0.000,    18.800,    -9.300,   1,1.11310, -11.7900,'BUS-54      ',100.0000,   2
     55, 1,     0.000,     0.000,    18.700,    -9.200,   1,1.11310, -11.7900,'BUS-55      ',100.0000,   2
     56, 1,     0.000,     0.000,    18.600,    -7.500,   1,1.10720,  -9.9400,'BUS-56      ',100.0000,   2
     57, 1,     0.000,     0.000,    18.800,    -7.000,   1,1.10720,  -9.9400,'BUS-57      ',100.0000,   2
     58, 1,    76.300,   -10.800,   121.000,   140.000,   1,1.10670,  -9.7600,'BUS-58      ',100.0000,   2
     59, 1,     0.000,     0.000,   508.000,     8.630,   1,1.11650, -10.8400,'BUS-59      ',100.0000,   2
     60, 1,     0.000,     0.000,     0.000,     0.000,   1,1.07630,   3.2100,'BUS-60      ',100.0000,   2
     61, 1,     0.000,     0.000,     0.000,   149.000,   1,1.11440, -11.8900,'BUS-61      ',100.0000,   2
     62, 1,     0.000,     0.000,     0.000,     0.000,   1,1.05660, -14.4700,'BUS-62      ',100.0000,   2
     63, 1,     0.000,     0.000,   823.000,   525.000,   1,1.11090, -13.9800,'BUS-63      ',100.0000,   2
     64, 1,     0.000,     0.000,   123.000,   -26.000,   1,1.09800,  -9.2900,'BUS-64      ',100.0000,   2
     65, 1,     0.000,     0.000,   124.000,   -26.000,   1,1.09800,  -9.2900,'BUS-65      ',100.0000,   2
     66, 1,   102.200,    26.700,   216.000,  1897.000,   1,1.11290,   1.3200,'BUS-66      ',100.0000,   2
     67, 1,     0.000,     0.000,     0.000,     0.000,   1,1.11370,   1.1500,'BUS-67      ',100.0000,   2
     68, 1,     0.000,    -7.410,    56.300,   -25.000,   1,1.20860, -30.9900,'BUS-68      ',100.0000,   2
     69, 1,     0.000,     0.000,   971.000,  -144.000,   1,1.09680, -10.4200,'BUS-69      ',100.0000,   2
     70, 1,     0.000,    56.630,   103.000,   -86.000,   1,0.99980, -14.1700,'BUS-70      ',100.0000,   2
     71, 1,     0.000,   -21.200,   106.000,  -122.000,   1,1.02750, -14.2600,'BUS-71      ',100.0000,   2
     72, 1,     0.000,     0.000,  1019.000,    24.600,   1,1.10070, -11.1900,'BUS-72      ',100.0000,   2
     73, 1,     0.000,     0.000,  1222.000,   841.000,   1,1.09750, -11.0600,'BUS-73      ',100.0000,   2
     74, 1,    81.900,    43.700,   857.000,   574.000,   1,1.09730, -11.4600,'BUS-74      ',100.0000,   2
     75, 1,     0.000,     0.000,   387.000,   199.000,   1,1.11790, -15.1900,'BUS-75      ',100.0000,   2
     76, 1,     0.000,     0.000,  -667.000,  -185.000,   1,1.02090,   5.5400,'BUS-76      ',100.0000,   2
     77, 1,     0.000,     0.000,     0.000,  -125.000,   1,0.98800,   6.7200,'BUS-77      ',100.0000,   2
     78, 1,    89.000,    26.800,     0.000,     0.000,   1,1.07400,  -5.1900,'BUS-78      ',100.0000,   2
     79, 1,     0.000,     0.000,     0.000,     0.000,   1,1.03960,  -8.0500,'BUS-79      ',100.0000,   2
     80, 1,     0.000,     0.000,     0.000,     0.000,   1,1.03960,  -8.0500,'BUS-80      ',100.0000,   2
     81, 1,    82.200,   -93.100,    70.000,   -47.000,   1,1.13040, -25.8600,'BUS-81      ',100.0000,   2
     82, 1,     0.000,     0.000,     0.000,     0.000,   1,1.09370, -10.6600,'BUS-82      ',100.0000,   2
     83, 1,     0.000,     0.000,   105.000,    -0.420,   1,1.09850,  -5.3800,'BUS-83      ',100.0000,   2
     84, 1,    24.300,     8.200,     0.000,     0.000,   1,1.11560,  -9.4400,'BUS-84      ',100.0000,   2
     85, 1,    27.400,     0.300,     0.000,     0.000,   1,1.11650, -13.0500,'BUS-85      ',100.0000,   2
     86, 1,     0.000,     0.000,   292.000,   -22.000,   1,1.05670, -14.0100,'BUS-86      ',100.0000,   2
     87, 1,     0.000,     0.000,    37.700,   -47.000,   1,1.06520,  -7.1700,'BUS-87      ',100.0000,   2
     88, 1,    69.000,    20.900,     0.000,     0.000,   1,1.10940,  -8.3500,'BUS-88      ',100.0000,   2
     89, 1,     0.000,     0.000,     0.000,     0.000,   1,1.03890,  -8.7700,'BUS-89      ',100.0000,   2
     90, 1,     0.000,     0.000,     0.000,     0.000,   1,1.09820, -11.4300,'BUS-90      ',100.0000,   2
     91, 1,     0.000,     0.000,     0.000,     0.000,   1,1.03850,  -9.1800,'BUS-91      ',100.0000,   2
     92, 1,     0.000,    31.020,    43.400,   -43.000,   1,0.95610, -12.7500,'BUS-92      ',100.0000,   2
     93, 1,     0.000,     0.000,     0.000,     0.000,   1,1.08100,  -4.3200,'BUS-93      ',100.0000,   2
     94, 1,     0.000,     0.000,     0.000,  -126.000,   1,1.06830,  -9.8100,'BUS-94      ',100.0000,   2
     95, 1,     0.000,     0.000,     0.000,  -126.000,   1,1.06860,  -9.8600,'BUS-95      ',100.0000,   2
     96, 1,     0.000,     0.000,     0.000,  -250.000,   1,1.00120,  -9.4400,'BUS-96      ',100.0000,   2
     97, 1,     0.000,     0.000,     0.000,  -126.000,   1,1.07460, -10.8800,'BUS-97      ',100.0000,   2
     98, 1,     0.000,     0.000,     0.000,   -58.000,   1,1.07080, -10.9600,'BUS-98      ',100.0000,   2
     99, 1,     0.000,     0.000,     0.000,     0.000,   1,1.11310, -10.9600,'BUS-99      ',100.0000,   2
    100, 1,     0.000,     0.000,     0.000,     0.000,   1,1.10860, -11.2400,'BUS-100     ',100.0000,   2
    101, 1,     0.000,     0.000,     0.000,     0.000,   1,1.03110,  -3.8800,'BUS-101     ',100.0000,   2
    102, 1,     0.000,     0.000,     0.000,     0.000,   1,1.09790,  -5.5100,'BUS-102     ',100.0000,   2
    103, 1,     0.000,     0.000,     0.000,     0.000,   1,1.02720,   2.3000,'BUS-103     ',100.0000,   2
    104, 1,     0.000,     0.000,     0.000,     0.000,   1,1.08090,  -4.3900,'BUS-104     ',100.0000,   2
    105, 1,     0.000,     0.000,     0.000,  -126.000,   1,1.10150,  -4.0200,'BUS-105     ',100.0000,   2
    106, 1,     0.000,     0.000,     0.000,  -126.000,   1,1.10150,  -4.0200,'BUS-106     ',100.0000,   2
    107, 1,   -17.500,   -12.800,    28.800,   -22.000,   1,1.02110, -13.5700,'BUS-107     ',100.0000,   2
    108, 1,     0.000,     0.000,     0.000,     0.000,   1,1.03800,  -9.8700,'BUS-108     ',100.0000,   2
    109, 1,     0.000,     0.000,     0.000,     0.000,   1,1.08940, -11.3700,'BUS-109     ',100.0000,   2
    110, 1,     0.000,     0.000,     0.000,  -126.000,   1,1.10180,  -4.0200,'BUS-110     ',100.0000,   2
    111, 1,     0.000,     0.000,     0.000,     0.000,   1,1.04330,  -7.8400,'BUS-111     ',100.0000,   2
    112, 1,     0.000,     0.000,     0.000,     0.000,   1,1.03890, -13.0700,'BUS-112     ',100.0000,   2
    113, 1,     0.000,     0.000,     0.000,     0.000,   1,0.97800,  -4.3900,'BUS-113     ',100.0000,   2
    114, 1,     0.000,     0.000,     0.000,     0.000,   1,0.97800,  -4.3900,'BUS-114     ',100.0000,   2
    115, 1,     0.000,     0.000,     0.000,  -126.000,   1,1.07620, -15.2800,'BUS-115     ',100.0000,   2
    116, 1,     0.000,     0.000,     0.000,  -126.000,   1,1.07460, -15.4400,'BUS-116     ',100.0000,   2
    117, 1,     0.000,     0.000,     0.000,     0.000,   1,1.07310,  -5.3500,'BUS-117     ',100.0000,   2
    118, 1,     0.000,     0.000,     0.000,     0.000,   1,1.09050, -11.8100,'BUS-118     ',100.0000,   2
    119, 1,     0.000,     0.000,     0.000,     0.000,   1,1.09370, -10.6600,'BUS-119     ',100.0000,   2
    120, 1,  -408.000,   175.100,  2026.000,   855.000,   1,1.03310, -51.6000,'BUS-120     ',100.0000,   2
    121, 1,     0.000,     0.000,     0.000,     0.000,   1,1.13920,  -4.0600,'BUS-121     ',100.0000,   2
    122, 1,    45.050,    46.560,     0.000,     0.000,   1,1.13870,  -4.0000,'BUS-122     ',100.0000,   2
    123, 1,   -84.000,   -19.000,   118.000,     1.400,   1,1.01710, -33.1200,'BUS-123     ',100.0000,   2
    124, 1,    49.190,    27.530,     0.000,     0.000,   1,1.13900,  -4.0800,'BUS-124     ',100.0000,   2
    125, 1,  -712.000,  -319.000,  2831.000,   -71.000,   1,1.00840, -32.5900,'BUS-125     ',100.0000,   2
    126, 1,  -333.000,  -160.000,  1604.000,   347.000,   1,1.05240, -73.9000,'BUS-126     ',100.0000,   2
    127, 1,  -546.000,   -72.000,   305.000,   -51.000,   1,1.00700, -36.4000,'BUS-127     ',100.0000,   2
    128, 1,     0.000,     0.000,     0.000,     0.000,   1,1.13850,  -3.8200,'BUS-128     ',100.0000,   2
    129, 1,  -482.000,  -122.000,  3855.000,   387.000,   1,0.98020, -73.0700,'BUS-129     ',100.0000,   2
    130, 1,     0.000,     0.000,     0.000,     0.000,   1,1.12350,  -6.2300,'BUS-130     ',100.0000,   2
    131, 1,     0.000,     0.000,     0.000,     0.000,   1,1.13060,  -5.2900,'BUS-131     ',100.0000,   2
    132, 1,     0.000,     0.000,     0.000,     0.000,   1,1.12700,  -7.9200,'BUS-132     ',100.0000,   2
    133, 1,   -83.000,   -36.300,   103.000,    -5.900,   1,1.09220, -11.6000,'BUS-133     ',100.0000,   2
    134, 1,     0.000,     0.000,     0.000,     0.000,   1,1.12690,  -7.9200,'BUS-134     ',100.0000,   2
    135, 1,     0.000,     0.000,    54.000,   -10.000,   1,1.11880, -10.4300,'BUS-135     ',100.0000,   2
    136, 1,     0.000,     0.000,    54.800,   -10.000,   1,1.11880, -10.4500,'BUS-136     ',100.0000,   2
    137, 1,     0.000,     0.000,     0.000,     0.000,   1,1.11890, -10.4000,'BUS-137     ',100.0000,   2
    138, 1,  -363.000,  -188.000,   433.000,   -81.000,   1,1.11380,  12.0100,'BUS-138     ',100.0000,   2
    139, 1,     0.000,     0.000,     0.000,     0.000,   1,1.11890, -10.4200,'BUS-139     ',100.0000,   2
    140, 1,     0.000,     0.000,     0.000,     0.000,   1,1.11730, -11.4100,'BUS-140     ',100.0000,   2
    141, 1,     0.000,     0.000,     0.000,     0.000,   1,1.11730, -11.4100,'BUS-141     ',100.0000,   2
    142, 1,     0.000,     0.000,    15.200,     5.370,   1,1.12750,  -6.7300,'BUS-142     ',100.0000,   2
    143, 1,     0.000,     0.000,    13.800,     5.200,   1,1.12780,  -6.7100,'BUS-143     ',100.0000,   2
    144, 1,     0.000,     0.000,     0.000,     0.000,   1,1.12790,  -6.7000,'BUS-144     ',100.0000,   2
    145, 1,     0.000,     0.000,     0.000,     0.000,   1,1.12760,  -6.7200,'BUS-145     ',100.0000,   2
0
      1,'1 ', 14118.620,  2987.150,  9999.000, -9999.000,1.05200,     0,   100.000,   0.00000,   0.0018,   0.00000,   0.00000,   1.00000,1,  100.0,     0.000,     0.000
      2,'1 ',  2000.000,   500.000,  9999.000, -9999.000,1.00590,     0,  2352.000,   0.00000,   0.0122,   0.00000,   0.00000,   1.00000,1,  100.0,     0.000,     0.000
      3,'1 ',  1620.000,   388.340,  9999.000, -9999.000,1.00700,     0,  2551.200,   0.00000,   0.0208,   0.00000,   0.00000,   1.00000,1,  100.0,     0.000,     0.000
      4,'1 ',  1080.000,   209.360,  9999.000, -9999.000,1.00500,     0,  1275.600,   0.00000,   0.0312,   0.00000,   0.00000,   1.00000,1,  100.0,     0.000,     0.000
      5,'1 ',   700.000,   519.840,  9999.000, -9999.000,1.00000,     0,   889.000,   0.00000,   0.0240,   0.00000,   0.00000,   1.00000,1,  100.0,     0.000,     0.000
      6,'1 ',  2000.000,   563.720,  9999.000, -9999.000,1.00000,     0,  2352.000,   0.00000,   0.0122,   0.00000,   0.00000,   1.00000,1,  100.0,     0.000,     0.000
      7,'1 ',    51.000,    32.920,  9999.000, -9999.000,1.13700,     0,   100.000,   0.00000,   0.4769,   0.00000,   0.00000,   1.00000,1,  100.0,     0.000,     0.000
      8,'1 ',  1486.000,   285.200,  9999.000, -9999.000,1.09000,     0,   100.000,   0.00000,   0.0213,   0.00000,   0.00000,   1.00000,1,  100.0,     0.000,     0.000
      9,'1 ',   250.200,   -15.950,  9999.000, -9999.000,1.05200,     0,   100.000,   0.00000,   0.1292,   0.00000,   0.00000,   1.00000,1,  100.0,     0.000,     0.000
     10,'1 ',    47.000,   -15.060,  9999.000, -9999.000,1.06900,     0,   100.000,   0.00000,   0.6648,   0.00000,   0.00000,   1.00000,1,  100.0,     0.000,     0.000
     11,'1 ',    70.000,    17.150,  9999.000, -9999.000,0.97500,     0,   100.000,   0.00000,   0.5291,   0.00000,   0.00000,   1.00000,1,  100.0,     0.000,     0.000
     12,'1 ',   673.000,   136.390,  9999.000, -9999.000,1.06600,     0,   100.000,   0.00000,   0.0585,   0.00000,   0.00000,   1.00000,1,  100.0,     0.000,     0.000
     13,'1 ',    22.000,    -3.870,  9999.000, -9999.000,0.95000,     0,   100.000,   0.00000,   0.0500,   0.00000,   0.00000,   1.00000,1,  100.0,     0.000,     0.000
     14,'1 ',    64.000,    -1.540,  9999.000, -9999.000,1.00000,     0,   100.000,   0.00000,   0.3718,   0.00000,   0.00000,   1.00000,1,  100.0,     0.000,     0.000
     15,'1 ',   300.000,    19.050,  9999.000, -9999.000,1.02000,     0,   100.000,   0.00000,   0.0839,   0.00000,   0.00000,   1.00000,1,  100.0,     0.000,     0.000
     16,'1 ',   131.000,    10.120,  9999.000, -9999.000,0.92000,     0,   100.000,   0.00000,   0.1619,   0.00000,   0.00000,   1.00000,1,  100.0,     0.000,     0.000
     17,'1 ',    60.000,    21.110,  9999.000, -9999.000,1.00000,     0,   100.000,   0.00000,   0.4824,   0.00000,   0.00000,   1.00000,1,  100.0,     0.000,     0.000
     18,'1 ',   140.000,    45.630,  9999.000, -9999.000,0.96700,     0,   100.000,   0.00000,   0.2125,   0.00000,   0.00000,   1.00000,1,  100.0,     0.000,     0.000
     19,'1 ',   426.000,   -32.730,  9999.000, -9999.000,0.97000,     0,   100.000,   0.00000,   0.0795,   0.00000,   0.00000,   1.00000,1,  100.0,     0.000,     0.000
     20,'1 ',   200.000,    -8.360,  9999.000, -9999.000,1.00000,     0,   100.000,   0.00000,   0.1146,   0.00000,   0.00000,   1.00000,1,  100.0,     0.000,     0.000
     21,'1 ',   170.000,    58.720,  9999.000, -9999.000,1.01400,     0,   100.000,   0.00000,   0.1386,   0.00000,   0.00000,   1.00000,1,  100.0,     0.000,     0.000
     22,'1 ',   310.900,   148.660,  9999.000, -9999.000,1.03900,     0,   100.000,   0.00000,   0.0924,   0.00000,   0.00000,   1.00000,1,  100.0,     0.000,     0.000
     23,'1 ',  2040.000,   488.900,  9999.000, -9999.000,1.01900,     0,  2000.000,   0.00000,   0.3000,   0.00000,   0.00000,   1.00000,1,  100.0,     0.000,     0.000
     24,'1 ',   135.000,     4.960,  9999.000, -9999.000,1.00000,     0,   100.000,   0.00000,   0.1063,   0.00000,   0.00000,   1.00000,1,  100.0,     0.000,     0.000
     25,'1 ',   800.000,    77.280,  9999.000, -9999.000,1.01400,     0,   100.000,   0.00000,   0.0248,   0.00000,   0.00000,   1.00000,1,  100.0,     0.000,     0.000
     26,'1 ',    52.000,   -15.550,  9999.000, -9999.000,0.91500,     0,   100.000,   0.00000,   0.2029,   0.00000,   0.00000,   1.00000,1,  100.0,     0.000,     0.000
     27,'1 ',   300.000,   140.110,  9999.000, -9999.000,1.03700,     0,   100.000,   0.00000,   0.0924,   0.00000,   0.00000,   1.00000,1,  100.0,     0.000,     0.000
     28,'1 ',  2493.000,   142.720,  9999.000, -9999.000,1.04900,     0,   100.000,   0.00000,   0.0024,   0.00000,   0.00000,   1.00000,1,  100.0,     0.000,     0.000
     29,'1 ',  2713.000,   631.840,  9999.000, -9999.000,1.04300,     0,   100.000,   0.00000,   0.0022,   0.00000,   0.00000,   1.00000,1,  100.0,     0.000,     0.000
     30,'1 ',  2627.000,   258.540,  9999.000, -9999.000,1.03000,     0,   100.000,   0.00000,   0.0017,   0.00000,   0.00000,   1.00000,1,  100.0,     0.000,     0.000
     31,'1 ',  4220.000,   660.380,  9999.000, -9999.000,1.01000,     0,   100.000,   0.00000,   0.0014,   0.00000,   0.00000,   1.00000,1,  100.0,     0.000,     0.000
     32,'1 ',  8954.000,  4748.480,  9999.000, -9999.000,1.01300,     0,   100.000,   0.00000,   0.0002,   0.00000,   0.00000,   1.00000,1,  100.0,     0.000,     0.000
     33,'1 ',  2997.000,  -160.220,  9999.000, -9999.000,1.04600,     0,   100.000,   0.00000,   0.0017,   0.00000,   0.00000,   1.00000,1,  100.0,     0.000,     0.000
     34,'1 ',  1009.000,   174.040,  9999.000, -9999.000,1.00000,     0,   100.000,   0.00000,   0.0089,   0.00000,   0.00000,   1.00000,1,  100.0,     0.000,     0.000
     35,'1 ',  3005.000,   569.190,  9999.000, -9999.000,1.00000,     0,   100.000,   0.00000,   0.0017,   0.00000,   0.00000,   1.00000,1,  100.0,     0.000,     0.000
     36,'1 ', 12963.000,  2610.820,  9999.000, -9999.000,1.02500,     0,   100.000,   0.00000,   0.0001,   0.00000,   0.00000,   1.00000,1,  100.0,     0.000,     0.000
     37,'1 ',  5937.000,  1834.960,  9999.000, -9999.000,1.05700,     0,   100.000,   0.00000,   0.0010,   0.00000,   0.00000,   1.00000,1,  100.0,     0.000,     0.000
     38,'1 ', 28300.000,  7473.040,  9999.000, -9999.000,1.04200,     0,   100.000,   0.00000,   0.0001,   0.00000,   0.00000,   1.00000,1,  100.0,     0.000,     0.000
     39,'1 ',  3095.000,   633.420,  9999.000, -9999.000,1.04200,     0,   100.000,   0.00000,   0.0016,   0.00000,   0.00000,   1.00000,1,  100.0,     0.000,     0.000
     40,'1 ',   206.260,   740.214,  9999.000, -9999.000,1.04400,     0,   100.000,   0.00000,   0.0003,   0.00000,   0.00000,   1.00000,1,  100.0,     0.000,     0.000
     41,'1 ',  5982.000,  1564.840,  9999.000, -9999.000,1.10700,     0,   100.000,   0.00000,   0.0008,   0.00000,   0.00000,   1.00000,1,  100.0,     0.000,     0.000
     42,'1 ',   519.500,     0.500,  9999.000, -9999.000,1.08300,     0,   100.000,   0.00000,   0.0001,   0.00000,   0.00000,   1.00000,1,  100.0,     0.000,     0.000
     43,'1 ',   120.680,   245.076,  9999.000, -9999.000,1.06400,     0,   100.000,   0.00000,   0.0004,   0.00000,   0.00000,   1.00000,1,  100.0,     0.000,     0.000
     44,'1 ', 56834.002,     0.650,  9999.000, -9999.000,1.04000,     0,   100.000,   0.00000,   0.0001,   0.00000,   0.00000,   1.00000,1,  100.0,     0.000,     0.000
     45,'1 ', 23123.000,  6710.470,  9999.000, -9999.000,1.05000,     0,   100.000,   0.00000,   0.0003,   0.00000,   0.00000,   1.00000,1,  100.0,     0.000,     0.000
     46,'1 ',   379.110,     0.520,  9999.000, -9999.000,1.05300,     0,   100.000,   0.00000,   0.0001,   0.00000,   0.00000,   1.00000,1,  100.0,     0.000,     0.000
     47,'1 ', 24449.000,  5496.120,  9999.000, -9999.000,1.15500,     0,   100.000,   0.00000,   0.0003,   0.00000,   0.00000,   1.00000,1,  100.0,     0.000,     0.000
     48,'1 ',  5254.000,  2158.630,  9999.000, -9999.000,1.03100,     0,   100.000,   0.00000,   0.0023,   0.00000,   0.00000,   1.00000,1,  100.0,     0.000,     0.000
     49,'1 ', 11397.000,  2686.850,  9999.000, -9999.000,0.99700,     0,   100.000,   0.00000,   0.0004,   0.00000,   0.00000,   1.00000,1,  100.0,     0.000,     0.000
     50,'1 ',   700.000,   373.810,  9999.000, -9999.000,1.00000,     0,   100.000,   0.00000,   0.0240,   0.00000,   0.00000,   1.00000,1,  100.0,     0.000,     0.000
0 / END OF GENERATOR DATA, BEGIN BRANCH DATA
      7,      9,'BL',  0.03750,  1.10680,  0.00000,   0.00,   0.00,   0.00,0.00000,  0.000, 0.00000, 0.00000, 0.00000, 0.00000, 1
      7,     10,'BL',  0.06550,  2.64410,  0.00000,   0.00,   0.00,   0.00,0.00000,  0.000, 0.00000, 0.00000, 0.00000, 0.00000, 1
      7,     13,'BL',  0.02010,  1.51350,  0.00000,   0.00,   0.00,   0.00,0.00000,  0.000, 0.00000, 0.00000, 0.00000, 0.00000, 1
      7,     15,'BL',  0.00120,  0.07750,  0.00000,   0.00,   0.00,   0.00,0.00000,  0.000, 0.00000, 0.00000, 0.00000, 0.00000, 1
      7,     16,'BL',  0.08550,  0.99260,  0.00000,   0.00,   0.00,   0.00,0.00000,  0.000, 0.00000, 0.00000, 0.00000, 0.00000, 1
      7,     41,'BL',  1.83100,  9.79640,  0.00000,   0.00,   0.00,   0.00,0.00000,  0.000, 0.00000, 0.00000, 0.00000, 0.00000, 1
      7,     92,'BL',  0.26400,  3.71390,  0.00000,   0.00,   0.00,   0.00,0.00000,  0.000, 0.00000, 0.00000, 0.00000, 0.00000, 1
      7,    138,'BL',  0.36390,  1.79360,  0.00000,   0.00,   0.00,   0.00,0.00000,  0.000, 0.00000, 0.00000, 0.00000, 0.00000, 1
      8,     18,'BL',  0.00630,  0.11660,  0.00000,   0.00,   0.00,   0.00,0.00000,  0.000, 0.00000, 0.00000, 0.00000, 0.00000, 1
      8,     32,'BL',  0.22130,  9.39180,  0.00000,   0.00,   0.00,   0.00,0.00000,  0.000, 0.00000, 0.00000, 0.00000, 0.00000, 1
      8,     33,'BL',  0.00820,  1.17000,  0.00000,   0.00,   0.00,   0.00,0.00000,  0.000, 0.00000, 0.00000, 0.00000, 0.00000, 1
      8,     34,'BL',  0.00470,  0.44730,  0.00000,   0.00,   0.00,   0.00,0.00000,  0.000, 0.00000, 0.00000, 0.00000, 0.00000, 1
      8,     35,'BL',  0.00030,  0.00650,  0.00000,   0.00,   0.00,   0.00,0.00000,  0.000, 0.00000, 0.00000, 0.00000, 0.00000, 1
      8,     39,'BL',  0.31940,  4.35660,  0.00000,   0.00,   0.00,   0.00,0.00000,  0.000, 0.00000, 0.00000, 0.00000, 0.00000, 1
      8,     68,'BL',  3.44300,  3.71720,  0.00000,   0.00,   0.00,   0.00,0.00000,  0.000, 0.00000, 0.00000, 0.00000, 0.00000, 1
      8,     69,'BL',  0.00610,  0.05500,  0.00000,   0.00,   0.00,   0.00,0.00000,  0.000, 0.00000, 0.00000, 0.00000, 0.00000, 1
      8,    120,'BL',  0.00340,  1.78470,  0.00000,   0.00,   0.00,   0.00,0.00000,  0.000, 0.00000, 0.00000, 0.00000, 0.00000, 1
      8,    125,'BL',  0.00620,  0.25190,  0.00000,   0.00,   0.00,   0.00,0.00000,  0.000, 0.00000, 0.00000, 0.00000, 0.00000, 1
      9,     10,'BL',  0.04400,  0.09910,  0.00000,   0.00,   0.00,   0.00,0.00000,  0.000, 0.00000, 0.00000, 0.00000, 0.00000, 1
      9,     13,'BL',  0.05060,  2.47100,  0.00000,   0.00,   0.00,   0.00,0.00000,  0.000, 0.00000, 0.00000, 0.00000, 0.00000, 1
      9,     15,'BL',  0.12750,  1.11950,  0.00000,   0.00,   0.00,   0.00,0.00000,  0.000, 0.00000, 0.00000, 0.00000, 0.00000, 1
      9,     16,'BL',  0.30500,  6.41540,  0.00000,   0.00,   0.00,   0.00,0.00000,  0.000, 0.00000, 0.00000, 0.00000, 0.00000, 1
      9,     92,'BL',  0.00170,  0.30320,  0.00000,   0.00,   0.00,   0.00,0.00000,  0.000, 0.00000, 0.00000, 0.00000, 0.00000, 1
      9,    107,'BL',  0.07860,  1.41400,  0.00000,   0.00,   0.00,   0.00,0.00000,  0.000, 0.00000, 0.00000, 0.00000, 0.00000, 1
     10,     13,'BL',  0.46580,  5.87560,  0.00000,   0.00,   0.00,   0.00,0.00000,  0.000, 0.00000, 0.00000, 0.00000, 0.00000, 1
     10,     15,'BL',  0.46000,  2.64750,  0.00000,   0.00,   0.00,   0.00,0.00000,  0.000, 0.00000, 0.00000, 0.00000, 0.00000, 1
     10,     92,'BL',  0.11920,  1.50530,  0.00000,   0.00,   0.00,   0.00,0.00000,  0.000, 0.00000, 0.00000, 0.00000, 0.00000, 1
     11,     14,'BL',  0.23490,  2.41880,  0.00000,   0.00,   0.00,   0.00,0.00000,  0.000, 0.00000, 0.00000, 0.00000, 0.00000, 1
     11,     25,'BL',  0.07420,  0.72780,  0.00000,   0.00,   0.00,   0.00,0.00000,  0.000, 0.00000, 0.00000, 0.00000, 0.00000, 1
     11,     26,'BL',  0.00710,  0.26340,  0.00000,   0.00,   0.00,   0.00,0.00000,  0.000, 0.00000, 0.00000, 0.00000, 0.00000, 1
     11,     33,'BL',  0.18920,  2.20540,  0.00000,   0.00,   0.00,   0.00,0.00000,  0.000, 0.00000, 0.00000, 0.00000, 0.00000, 1
     12,     24,'BL',  1.07300,  4.14330,  0.00000,   0.00,   0.00,   0.00,0.00000,  0.000, 0.00000, 0.00000, 0.00000, 0.00000, 1
     13,     15,'BL',  0.06890,  1.07170,  0.00000,   0.00,   0.00,   0.00,0.00000,  0.000, 0.00000, 0.00000, 0.00000, 0.00000, 1
     13,     92,'BL',  0.13800,  8.29590,  0.00000,   0.00,   0.00,   0.00,0.00000,  0.000, 0.00000, 0.00000, 0.00000, 0.00000, 1
     14,     17,'BL',  0.12240,  4.24630,  0.00000,   0.00,   0.00,   0.00,0.00000,  0.000, 0.00000, 0.00000, 0.00000, 0.00000, 1
     14,     25,'BL',  0.10780,  0.69940,  0.00000,   0.00,   0.00,   0.00,0.00000,  0.000, 0.00000, 0.00000, 0.00000, 0.00000, 1
     14,     26,'BL',  0.26990,  4.26340,  0.00000,   0.00,   0.00,   0.00,0.00000,  0.000, 0.00000, 0.00000, 0.00000, 0.00000, 1
     14,     33,'BL',  0.29240,  2.12100,  0.00000,   0.00,   0.00,   0.00,0.00000,  0.000, 0.00000, 0.00000, 0.00000, 0.00000, 1
     15,     16,'BL',  0.05340,  0.99600,  0.00000,   0.00,   0.00,   0.00,0.00000,  0.000, 0.00000, 0.00000, 0.00000, 0.00000, 1
     15,    138,'BL',  0.11250,  1.83850,  0.00000,   0.00,   0.00,   0.00,0.00000,  0.000, 0.00000, 0.00000, 0.00000, 0.00000, 1
     16,    138,'BL',  0.07320,  0.63890,  0.00000,   0.00,   0.00,   0.00,0.00000,  0.000, 0.00000, 0.00000, 0.00000, 0.00000, 1
     17,     25,'BL',  0.82150,  6.11430,  0.00000,   0.00,   0.00,   0.00,0.00000,  0.000, 0.00000, 0.00000, 0.00000, 0.00000, 1
     18,     35,'BL',  0.37930,  1.95570,  0.00000,   0.00,   0.00,   0.00,0.00000,  0.000, 0.00000, 0.00000, 0.00000, 0.00000, 1
     19,     21,'BL',  0.00630,  0.32690,  0.00000,   0.00,   0.00,   0.00,0.00000,  0.000, 0.00000, 0.00000, 0.00000, 0.00000, 1
     19,     24,'BL',  0.05440,  1.43580,  0.00000,   0.00,   0.00,   0.00,0.00000,  0.000, 0.00000, 0.00000, 0.00000, 0.00000, 1
     21,     24,'BL',  0.02490,  0.48910,  0.00000,   0.00,   0.00,   0.00,0.00000,  0.000, 0.00000, 0.00000, 0.00000, 0.00000, 1
     22,     27,'BL',  0.01380,  0.36100,  0.00000,   0.00,   0.00,   0.00,0.00000,  0.000, 0.00000, 0.00000, 0.00000, 0.00000, 1
     23,     30,'BL',  0.00030,  0.01900,  0.00000,   0.00,   0.00,   0.00,0.00000,  0.000, 0.00000, 0.00000, 0.00000, 0.00000, 1
     23,     31,'BL',  0.02670,  0.32220,  0.00000,   0.00,   0.00,   0.00,0.00000,  0.000, 0.00000, 0.00000, 0.00000, 0.00000, 1
     25,     26,'BL',  0.08250,  1.27130,  0.00000,   0.00,   0.00,   0.00,0.00000,  0.000, 0.00000, 0.00000, 0.00000, 0.00000, 1
     25,     33,'BL',  0.00090,  0.04310,  0.00000,   0.00,   0.00,   0.00,0.00000,  0.000, 0.00000, 0.00000, 0.00000, 0.00000, 1
     26,     33,'BL',  0.18810,  3.84990,  0.00000,   0.00,   0.00,   0.00,0.00000,  0.000, 0.00000, 0.00000, 0.00000, 0.00000, 1
     28,     29,'BL',  0.00080,  0.02910,  0.00000,   0.00,   0.00,   0.00,0.00000,  0.000, 0.00000, 0.00000, 0.00000, 0.00000, 1
     28,     30,'BL',  0.00920,  0.22220,  0.00000,   0.00,   0.00,   0.00,0.00000,  0.000, 0.00000, 0.00000, 0.00000, 0.00000, 1
     28,     31,'BL',  0.00440,  0.06770,  0.00000,   0.00,   0.00,   0.00,0.00000,  0.000, 0.00000, 0.00000, 0.00000, 0.00000, 1
     28,     48,'BL',  0.10170,  0.49240,  0.00000,   0.00,   0.00,   0.00,0.00000,  0.000, 0.00000, 0.00000, 0.00000, 0.00000, 1
     29,     30,'BL',  0.00191,  0.02880,  0.00000,   0.00,   0.00,   0.00,0.00000,  0.000, 0.00000, 0.00000, 0.00000, 0.00000, 1
     29,     31,'BL',  0.00100,  0.04400,  0.00000,   0.00,   0.00,   0.00,0.00000,  0.000, 0.00000, 0.00000, 0.00000, 0.00000, 1
     29,     48,'BL',  0.21870,  1.28960,  0.00000,   0.00,   0.00,   0.00,0.00000,  0.000, 0.00000, 0.00000, 0.00000, 0.00000, 1
     30,     31,'BL',  0.00080,  0.00810,  0.00000,   0.00,   0.00,   0.00,0.00000,  0.000, 0.00000, 0.00000, 0.00000, 0.00000, 1
     30,     48,'BL',  0.08340,  0.68540,  0.00000,   0.00,   0.00,   0.00,0.00000,  0.000, 0.00000, 0.00000, 0.00000, 0.00000, 1
     31,     38,'BL',  0.89250,  6.23850,  0.00000,   0.00,   0.00,   0.00,0.00000,  0.000, 0.00000, 0.00000, 0.00000, 0.00000, 1
     31,     39,'BL',  0.69670,  8.14300,  0.00000,   0.00,   0.00,   0.00,0.00000,  0.000, 0.00000, 0.00000, 0.00000, 0.00000, 1
     31,     48,'BL',  0.00110,  0.02310,  0.00000,   0.00,   0.00,   0.00,0.00000,  0.000, 0.00000, 0.00000, 0.00000, 0.00000, 1
     32,     33,'BL',  0.01100,  0.29010,  0.00000,   0.00,   0.00,   0.00,0.00000,  0.000, 0.00000, 0.00000, 0.00000, 0.00000, 1
     32,     34,'BL',  0.60130,  5.89410,  0.00000,   0.00,   0.00,   0.00,0.00000,  0.000, 0.00000, 0.00000, 0.00000, 0.00000, 1
     32,     35,'BL',  0.26180,  3.39400,  0.00000,   0.00,   0.00,   0.00,0.00000,  0.000, 0.00000, 0.00000, 0.00000, 0.00000, 1
     32,     36,'BL',  0.00540,  0.05160,  0.00000,   0.00,   0.00,   0.00,0.00000,  0.000, 0.00000, 0.00000, 0.00000, 0.00000, 1
     32,     37,'BL',  0.00220,  0.01630,  0.00000,   0.00,   0.00,   0.00,0.00000,  0.000, 0.00000, 0.00000, 0.00000, 0.00000, 1
     32,     38,'BL',  0.00440,  0.02420,  0.00000,   0.00,   0.00,   0.00,0.00000,  0.000, 0.00000, 0.00000, 0.00000, 0.00000, 1
     32,     39,'BL',  0.41370,  2.40270,  0.00000,   0.00,   0.00,   0.00,0.00000,  0.000, 0.00000, 0.00000, 0.00000, 0.00000, 1
     32,     49,'BL',  0.85110,  3.83580,  0.00000,   0.00,   0.00,   0.00,0.00000,  0.000, 0.00000, 0.00000, 0.00000, 0.00000, 1
     32,    120,'BL',  0.00100,  0.02360,  0.00000,   0.00,   0.00,   0.00,0.00000,  0.000, 0.00000, 0.00000, 0.00000, 0.00000, 1
     32,    125,'BL',  0.00820,  0.25950,  0.00000,   0.00,   0.00,   0.00,0.00000,  0.000, 0.00000, 0.00000, 0.00000, 0.00000, 1
     32,    126,'BL',  0.00153,  0.01790,  0.00000,   0.00,   0.00,   0.00,0.00000,  0.000, 0.00000, 0.00000, 0.00000, 0.00000, 1
     32,    127,'BL',  0.11720,  1.39320,  0.00000,   0.00,   0.00,   0.00,0.00000,  0.000, 0.00000, 0.00000, 0.00000, 0.00000, 1
     32,    129,'BL',  0.00340,  0.06420,  0.00000,   0.00,   0.00,   0.00,0.00000,  0.000, 0.00000, 0.00000, 0.00000, 0.00000, 1
     33,     34,'BL',  0.01080,  0.48300,  0.00000,   0.00,   0.00,   0.00,0.00000,  0.000, 0.00000, 0.00000, 0.00000, 0.00000, 1
     33,     35,'BL',  0.00600,  0.34940,  0.00000,   0.00,   0.00,   0.00,0.00000,  0.000, 0.00000, 0.00000, 0.00000, 0.00000, 1
     33,     36,'BL',  0.02780,  0.30950,  0.00000,   0.00,   0.00,   0.00,0.00000,  0.000, 0.00000, 0.00000, 0.00000, 0.00000, 1
     33,     38,'BL',  0.21830,  1.50660,  0.00000,   0.00,   0.00,   0.00,0.00000,  0.000, 0.00000, 0.00000, 0.00000, 0.00000, 1
     33,     39,'BL',  0.13080,  1.38150,  0.00000,   0.00,   0.00,   0.00,0.00000,  0.000, 0.00000, 0.00000, 0.00000, 0.00000, 1
     33,    123,'BL',  0.17120,  1.94820,  0.00000,   0.00,   0.00,   0.00,0.00000,  0.000, 0.00000, 0.00000, 0.00000, 0.00000, 1
     33,    125,'BL',  0.00000,  0.01240,  0.00000,   0.00,   0.00,   0.00,0.00000,  0.000, 0.00000, 0.00000, 0.00000, 0.00000, 1
     33,    127,'BL',  0.02040,  0.83380,  0.00000,   0.00,   0.00,   0.00,0.00000,  0.000, 0.00000, 0.00000, 0.00000, 0.00000, 1
     33,    129,'BL',  0.45450,  4.25400,  0.00000,   0.00,   0.00,   0.00,0.00000,  0.000, 0.00000, 0.00000, 0.00000, 0.00000, 1
     34,     35,'BL',  0.00090,  0.05520,  0.00000,   0.00,   0.00,   0.00,0.00000,  0.000, 0.00000, 0.00000, 0.00000, 0.00000, 1
     34,     38,'BL',  0.24330,  1.93500,  0.00000,   0.00,   0.00,   0.00,0.00000,  0.000, 0.00000, 0.00000, 0.00000, 0.00000, 1
     34,     39,'BL',  0.01870,  0.25720,  0.00000,   0.00,   0.00,   0.00,0.00000,  0.000, 0.00000, 0.00000, 0.00000, 0.00000, 1
     34,     48,'BL',  0.03120,  0.48880,  0.00000,   0.00,   0.00,   0.00,0.00000,  0.000, 0.00000, 0.00000, 0.00000, 0.00000, 1
     34,    123,'BL',  0.58400,  4.86090,  0.00000,   0.00,   0.00,   0.00,0.00000,  0.000, 0.00000, 0.00000, 0.00000, 0.00000, 1
     34,    125,'BL',  0.00690,  0.15830,  0.00000,   0.00,   0.00,   0.00,0.00000,  0.000, 0.00000, 0.00000, 0.00000, 0.00000, 1
     34,    133,'BL',  0.09800,  0.98210,  0.00000,   0.00,   0.00,   0.00,0.00000,  0.000, 0.00000, 0.00000, 0.00000, 0.00000, 1
     35,     36,'BL',  1.15300,  8.25130,  0.00000,   0.00,   0.00,   0.00,0.00000,  0.000, 0.00000, 0.00000, 0.00000, 0.00000, 1
     35,     38,'BL',  0.10620,  0.81850,  0.00000,   0.00,   0.00,   0.00,0.00000,  0.000, 0.00000, 0.00000, 0.00000, 0.00000, 1
     35,     39,'BL',  0.00940,  0.16120,  0.00000,   0.00,   0.00,   0.00,0.00000,  0.000, 0.00000, 0.00000, 0.00000, 0.00000, 1
     35,     48,'BL',  0.00780,  0.76070,  0.00000,   0.00,   0.00,   0.00,0.00000,  0.000, 0.00000, 0.00000, 0.00000, 0.00000, 1
     35,    125,'BL',  0.00170,  0.09490,  0.00000,   0.00,   0.00,   0.00,0.00000,  0.000, 0.00000, 0.00000, 0.00000, 0.00000, 1
     35,    133,'BL',  0.03420,  1.17980,  0.00000,   0.00,   0.00,   0.00,0.00000,  0.000, 0.00000, 0.00000, 0.00000, 0.00000, 1
     36,     37,'BL',  1.10000,  2.99240,  0.00000,   0.00,   0.00,   0.00,0.00000,  0.000, 0.00000, 0.00000, 0.00000, 0.00000, 1
     36,     38,'BL',  1.55900,  4.08690,  0.00000,   0.00,   0.00,   0.00,0.00000,  0.000, 0.00000, 0.00000, 0.00000, 0.00000, 1
     36,    129,'BL',  0.00100,  0.02070,  0.00000,   0.00,   0.00,   0.00,0.00000,  0.000, 0.00000, 0.00000, 0.00000, 0.00000, 1
     37,     38,'BL',  0.00270,  0.01540,  0.00000,   0.00,   0.00,   0.00,0.00000,  0.000, 0.00000, 0.00000, 0.00000, 0.00000, 1
     37,     39,'BL',  0.65090,  3.03100,  0.00000,   0.00,   0.00,   0.00,0.00000,  0.000, 0.00000, 0.00000, 0.00000, 0.00000, 1
     37,     49,'BL',  0.75320,  3.06640,  0.00000,   0.00,   0.00,   0.00,0.00000,  0.000, 0.00000, 0.00000, 0.00000, 0.00000, 1
     38,     39,'BL',  0.00320,  0.04110,  0.00000,   0.00,   0.00,   0.00,0.00000,  0.000, 0.00000, 0.00000, 0.00000, 0.00000, 1
     38,     48,'BL',  0.05880,  0.40550,  0.00000,   0.00,   0.00,   0.00,0.00000,  0.000, 0.00000, 0.00000, 0.00000, 0.00000, 1
     38,     49,'BL',  0.00220,  0.01510,  0.00000,   0.00,   0.00,   0.00,0.00000,  0.000, 0.00000, 0.00000, 0.00000, 0.00000, 1
     38,    133,'BL',  1.07700,  5.52850,  0.00000,   0.00,   0.00,   0.00,0.00000,  0.000, 0.00000, 0.00000, 0.00000, 0.00000, 1
     39,     48,'BL',  0.00490,  0.09650,  0.00000,   0.00,   0.00,   0.00,0.00000,  0.000, 0.00000, 0.00000, 0.00000, 0.00000, 1
     39,     49,'BL',  0.11080,  0.98270,  0.00000,   0.00,   0.00,   0.00,0.00000,  0.000, 0.00000, 0.00000, 0.00000, 0.00000, 1
     39,    133,'BL',  0.09160,  0.82290,  0.00000,   0.00,   0.00,   0.00,0.00000,  0.000, 0.00000, 0.00000, 0.00000, 0.00000, 1
     40,     38,'BL',  0.40420,  0.91440,  0.00000,   0.00,   0.00,   0.00,0.00000,  0.000, 0.00000, 0.00000, 0.00000, 0.00000, 1
     40,     42,'BL',  0.06980,  0.64280,  0.00000,   0.00,   0.00,   0.00,0.00000,  0.000, 0.00000, 0.00000, 0.00000, 0.00000, 1
     40,     44,'BL',  0.03530,  0.16600,  0.00000,   0.00,   0.00,   0.00,0.00000,  0.000, 0.00000, 0.00000, 0.00000, 0.00000, 1
     40,     46,'BL',  0.02300,  0.11790,  0.00000,   0.00,   0.00,   0.00,0.00000,  0.000, 0.00000, 0.00000, 0.00000, 0.00000, 1
     40,     47,'BL',  0.02630,  0.11670,  0.00000,   0.00,   0.00,   0.00,0.00000,  0.000, 0.00000, 0.00000, 0.00000, 0.00000, 1
     40,     49,'BL',  0.01450,  0.04350,  0.00000,   0.00,   0.00,   0.00,0.00000,  0.000, 0.00000, 0.00000, 0.00000, 0.00000, 1
     40,      1,'BL',  0.00340,  0.02160,  0.00000,   0.00,   0.00,   0.00,0.00000,  0.000, 0.00000, 0.00000, 0.00000, 0.00000, 1
     41,     16,'BL',  0.34480,  3.48450,  0.00000,   0.00,   0.00,   0.00,0.00000,  0.000, 0.00000, 0.00000, 0.00000, 0.00000, 1
     41,     42,'BL',  0.00310,  0.01780,  0.00000,   0.00,   0.00,   0.00,0.00000,  0.000, 0.00000, 0.00000, 0.00000, 0.00000, 1
     41,     46,'BL',  0.12900,  0.69930,  0.00000,   0.00,   0.00,   0.00,0.00000,  0.000, 0.00000, 0.00000, 0.00000, 0.00000, 1
     41,    138,'BL',  0.00840,  0.17290,  0.00000,   0.00,   0.00,   0.00,0.00000,  0.000, 0.00000, 0.00000, 0.00000, 0.00000, 1
     42,     28,'BL',  0.01200,  0.08550,  0.00000,   0.00,   0.00,   0.00,0.00000,  0.000, 0.00000, 0.00000, 0.00000, 0.00000, 1
     42,     29,'BL',  1.20000,  4.26550,  0.00000,   0.00,   0.00,   0.00,0.00000,  0.000, 0.00000, 0.00000, 0.00000, 0.00000, 1
     42,     30,'BL',  2.96900,  9.08750,  0.00000,   0.00,   0.00,   0.00,0.00000,  0.000, 0.00000, 0.00000, 0.00000, 0.00000, 1
     42,     31,'BL',  0.57490,  1.62060,  0.00000,   0.00,   0.00,   0.00,0.00000,  0.000, 0.00000, 0.00000, 0.00000, 0.00000, 1
     42,     44,'BL',  0.00590,  0.02930,  0.00000,   0.00,   0.00,   0.00,0.00000,  0.000, 0.00000, 0.00000, 0.00000, 0.00000, 1
     42,     45,'BL',  2.40300,  9.37800,  0.00000,   0.00,   0.00,   0.00,0.00000,  0.000, 0.00000, 0.00000, 0.00000, 0.00000, 1
     42,     46,'BL',  0.00260,  0.01750,  0.00000,   0.00,   0.00,   0.00,0.00000,  0.000, 0.00000, 0.00000, 0.00000, 0.00000, 1
     42,     47,'BL',  0.04670,  0.17090,  0.00000,   0.00,   0.00,   0.00,0.00000,  0.000, 0.00000, 0.00000, 0.00000, 0.00000, 1
     42,     48,'BL',  1.76200,  3.45490,  0.00000,   0.00,   0.00,   0.00,0.00000,  0.000, 0.00000, 0.00000, 0.00000, 0.00000, 1
     42,      1,'BL',  0.00490,  0.05390,  0.00000,   0.00,   0.00,   0.00,0.00000,  0.000, 0.00000, 0.00000, 0.00000, 0.00000, 1
     42,    138,'BL',  0.15810,  0.54850,  0.00000,   0.00,   0.00,   0.00,0.00000,  0.000, 0.00000, 0.00000, 0.00000, 0.00000, 1
     43,     44,'BL',  0.01830,  0.09360,  0.00000,   0.00,   0.00,   0.00,0.00000,  0.000, 0.00000, 0.00000, 0.00000, 0.00000, 1
     43,     45,'BL',  2.22900,  8.02280,  0.00000,   0.00,   0.00,   0.00,0.00000,  0.000, 0.00000, 0.00000, 0.00000, 0.00000, 1
     43,      1,'BL',  0.08520,  0.40710,  0.00000,   0.00,   0.00,   0.00,0.00000,  0.000, 0.00000, 0.00000, 0.00000, 0.00000, 1
     44,     45,'BL',  0.00540,  0.02390,  0.00000,   0.00,   0.00,   0.00,0.00000,  0.000, 0.00000, 0.00000, 0.00000, 0.00000, 1
     44,     46,'BL',  0.00830,  0.04600,  0.00000,   0.00,   0.00,   0.00,0.00000,  0.000, 0.00000, 0.00000, 0.00000, 0.00000, 1
     44,     47,'BL',  0.31020,  1.26700,  0.00000,   0.00,   0.00,   0.00,0.00000,  0.000, 0.00000, 0.00000, 0.00000, 0.00000, 1
     44,      1,'BL',  0.00090,  0.00800,  0.00000,   0.00,   0.00,   0.00,0.00000,  0.000, 0.00000, 0.00000, 0.00000, 0.00000, 1
     45,      1,'BL',  0.10880,  0.48000,  0.00000,   0.00,   0.00,   0.00,0.00000,  0.000, 0.00000, 0.00000, 0.00000, 0.00000, 1
     46,     28,'BL',  0.00070,  0.01310,  0.00000,   0.00,   0.00,   0.00,0.00000,  0.000, 0.00000, 0.00000, 0.00000, 0.00000, 1
     46,     29,'BL',  0.15680,  0.74480,  0.00000,   0.00,   0.00,   0.00,0.00000,  0.000, 0.00000, 0.00000, 0.00000, 0.00000, 1
     46,     30,'BL',  0.37020,  1.38200,  0.00000,   0.00,   0.00,   0.00,0.00000,  0.000, 0.00000, 0.00000, 0.00000, 0.00000, 1
     46,     31,'BL',  0.04140,  0.14390,  0.00000,   0.00,   0.00,   0.00,0.00000,  0.000, 0.00000, 0.00000, 0.00000, 0.00000, 1
     46,     38,'BL',  0.23310,  0.81290,  0.00000,   0.00,   0.00,   0.00,0.00000,  0.000, 0.00000, 0.00000, 0.00000, 0.00000, 1
     46,     39,'BL',  1.62800,  7.09360,  0.00000,   0.00,   0.00,   0.00,0.00000,  0.000, 0.00000, 0.00000, 0.00000, 0.00000, 1
     46,     47,'BL',  0.00180,  0.01050,  0.00000,   0.00,   0.00,   0.00,0.00000,  0.000, 0.00000, 0.00000, 0.00000, 0.00000, 1
     46,     48,'BL',  0.07020,  0.17780,  0.00000,   0.00,   0.00,   0.00,0.00000,  0.000, 0.00000, 0.00000, 0.00000, 0.00000, 1
     46,     49,'BL',  0.07560,  0.24410,  0.00000,   0.00,   0.00,   0.00,0.00000,  0.000, 0.00000, 0.00000, 0.00000, 0.00000, 1
     46,      1,'BL',  0.00380,  0.03580,  0.00000,   0.00,   0.00,   0.00,0.00000,  0.000, 0.00000, 0.00000, 0.00000, 0.00000, 1
     47,     28,'BL',  0.01660,  0.15630,  0.00000,   0.00,   0.00,   0.00,0.00000,  0.000, 0.00000, 0.00000, 0.00000, 0.00000, 1
     47,     29,'BL',  0.69160,  2.63020,  0.00000,   0.00,   0.00,   0.00,0.00000,  0.000, 0.00000, 0.00000, 0.00000, 0.00000, 1
     47,     30,'BL',  0.55960,  2.22840,  0.00000,   0.00,   0.00,   0.00,0.00000,  0.000, 0.00000, 0.00000, 0.00000, 0.00000, 1
     47,     31,'BL',  0.01850,  0.10370,  0.00000,   0.00,   0.00,   0.00,0.00000,  0.000, 0.00000, 0.00000, 0.00000, 0.00000, 1
     47,     32,'BL',  0.27420,  1.86110,  0.00000,   0.00,   0.00,   0.00,0.00000,  0.000, 0.00000, 0.00000, 0.00000, 0.00000, 1
     47,     34,'BL',  0.25890,  2.17320,  0.00000,   0.00,   0.00,   0.00,0.00000,  0.000, 0.00000, 0.00000, 0.00000, 0.00000, 1
     47,     35,'BL',  0.17360,  2.13470,  0.00000,   0.00,   0.00,   0.00,0.00000,  0.000, 0.00000, 0.00000, 0.00000, 0.00000, 1
     47,     37,'BL',  0.36080,  1.86180,  0.00000,   0.00,   0.00,   0.00,0.00000,  0.000, 0.00000, 0.00000, 0.00000, 0.00000, 1
     47,     38,'BL',  0.00130,  0.01570,  0.00000,   0.00,   0.00,   0.00,0.00000,  0.000, 0.00000, 0.00000, 0.00000, 0.00000, 1
     47,     39,'BL',  0.00550,  0.08100,  0.00000,   0.00,   0.00,   0.00,0.00000,  0.000, 0.00000, 0.00000, 0.00000, 0.00000, 1
     47,     48,'BL',  0.00380,  0.01870,  0.00000,   0.00,   0.00,   0.00,0.00000,  0.000, 0.00000, 0.00000, 0.00000, 0.00000, 1
     47,     49,'BL',  0.00200,  0.02290,  0.00000,   0.00,   0.00,   0.00,0.00000,  0.000, 0.00000, 0.00000, 0.00000, 0.00000, 1
     47,      1,'BL',  0.07380,  0.43800,  0.00000,   0.00,   0.00,   0.00,0.00000,  0.000, 0.00000, 0.00000, 0.00000, 0.00000, 1
     47,    120,'BL',  0.60430,  7.35300,  0.00000,   0.00,   0.00,   0.00,0.00000,  0.000, 0.00000, 0.00000, 0.00000, 0.00000, 1
     47,    125,'BL',  1.09000,  8.61600,  0.00000,   0.00,   0.00,   0.00,0.00000,  0.000, 0.00000, 0.00000, 0.00000, 0.00000, 1
     47,    133,'BL',  1.63600,  9.17250,  0.00000,   0.00,   0.00,   0.00,0.00000,  0.000, 0.00000, 0.00000, 0.00000, 0.00000, 1
     48,     49,'BL',  0.48630,  2.32820,  0.00000,   0.00,   0.00,   0.00,0.00000,  0.000, 0.00000, 0.00000, 0.00000, 0.00000, 1
     49,      1,'BL',  0.38350,  1.20520,  0.00000,   0.00,   0.00,   0.00,0.00000,  0.000, 0.00000, 0.00000, 0.00000, 0.00000, 1
     51,     52,'BL',  0.00290,  0.02790,  0.04660,   0.00,   0.00,   0.00,0.00000,  0.000, 0.00000, 0.00000, 0.00000, 0.00000, 1
     51,     53,'BL',  0.00290,  0.02790,  0.04660,   0.00,   0.00,   0.00,0.00000,  0.000, 0.00000, 0.00000, 0.00000, 0.00000, 1
     51,     56,'BL',  0.00759,  0.04830,  0.07120,   0.00,   0.00,   0.00,0.00000,  0.000, 0.00000, 0.00000, 0.00000, 0.00000, 1
     51,     57,'BL',  0.00759,  0.04830,  0.07120,   0.00,   0.00,   0.00,0.00000,  0.000, 0.00000, 0.00000, 0.00000, 0.00000, 1
     52,     53,'BL',  0.00670,  0.39110,  0.00000,   0.00,   0.00,   0.00,0.00000,  0.000, 0.00000, 0.00000, 0.00000, 0.00000, 1
     52,     54,'BL',  0.00470,  0.02930,  0.04620,   0.00,   0.00,   0.00,0.00000,  0.000, 0.00000, 0.00000, 0.00000, 0.00000, 1
     53,     55,'BL',  0.00470,  0.02930,  0.04620,   0.00,   0.00,   0.00,0.00000,  0.000, 0.00000, 0.00000, 0.00000, 0.00000, 1
     54,     55,'BL',  0.05530,  0.92890,  0.00000,   0.00,   0.00,   0.00,0.00000,  0.000, 0.00000, 0.00000, 0.00000, 0.00000, 1
     54,     61,'BL',  0.00141,  0.00870,  0.01380,   0.00,   0.00,   0.00,0.00000,  0.000, 0.00000, 0.00000, 0.00000, 0.00000, 1
     55,     61,'BL',  0.00141,  0.00870,  0.01380,   0.00,   0.00,   0.00,0.00000,  0.000, 0.00000, 0.00000, 0.00000, 0.00000, 1
     56,     57,'BL',  0.00900,  0.38950,  0.00000,   0.00,   0.00,   0.00,0.00000,  0.000, 0.00000, 0.00000, 0.00000, 0.00000, 1
     56,     58,'BL',  0.00190,  0.01200,  0.01780,   0.00,   0.00,   0.00,0.00000,  0.000, 0.00000, 0.00000, 0.00000, 0.00000, 1
     57,     58,'BL',  0.00190,  0.01200,  0.01780,   0.00,   0.00,   0.00,0.00000,  0.000, 0.00000, 0.00000, 0.00000, 0.00000, 1
     58,     19,'BL',  0.01310,  0.17650,  0.00000,   0.00,   0.00,   0.00,0.00000,  0.000, 0.00000, 0.00000, 0.00000, 0.00000, 1
     58,     21,'BL',  0.11930,  1.26900,  0.00000,   0.00,   0.00,   0.00,0.00000,  0.000, 0.00000, 0.00000, 0.00000, 0.00000, 1
     58,     24,'BL',  0.84160,  5.53830,  0.00000,   0.00,   0.00,   0.00,0.00000,  0.000, 0.00000, 0.00000, 0.00000, 0.00000, 1
     58,     59,'BL',  0.66740,  2.21750,  0.00000,   0.00,   0.00,   0.00,0.00000,  0.000, 0.00000, 0.00000, 0.00000, 0.00000, 1
     58,     72,'BL',  0.03020,  0.23640,  0.00000,   0.00,   0.00,   0.00,0.00000,  0.000, 0.00000, 0.00000, 0.00000, 0.00000, 1
     58,     87,'BL',  0.08630,  0.39060,  0.00000,   0.00,   0.00,   0.00,0.00000,  0.000, 0.00000, 0.00000, 0.00000, 0.00000, 1
     59,      7,'BL',  0.18030,  5.96590,  0.00000,   0.00,   0.00,   0.00,0.00000,  0.000, 0.00000, 0.00000, 0.00000, 0.00000, 1
     59,      9,'BL',  0.00990,  0.26440,  0.00000,   0.00,   0.00,   0.00,0.00000,  0.000, 0.00000, 0.00000, 0.00000, 0.00000, 1
     59,     10,'BL',  0.28760,  2.38980,  0.00000,   0.00,   0.00,   0.00,0.00000,  0.000, 0.00000, 0.00000, 0.00000, 0.00000, 1
     59,     12,'BL',  0.34210,  9.05710,  0.00000,   0.00,   0.00,   0.00,0.00000,  0.000, 0.00000, 0.00000, 0.00000, 0.00000, 1
     59,     15,'BL',  0.70410,  5.98850,  0.00000,   0.00,   0.00,   0.00,0.00000,  0.000, 0.00000, 0.00000, 0.00000, 0.00000, 1
     59,     19,'BL',  0.10600,  0.58450,  0.00000,   0.00,   0.00,   0.00,0.00000,  0.000, 0.00000, 0.00000, 0.00000, 0.00000, 1
     59,     21,'BL',  0.01830,  0.20160,  0.00000,   0.00,   0.00,   0.00,0.00000,  0.000, 0.00000, 0.00000, 0.00000, 0.00000, 1
     59,     24,'BL',  0.03680,  0.33410,  0.00000,   0.00,   0.00,   0.00,0.00000,  0.000, 0.00000, 0.00000, 0.00000, 0.00000, 1
     59,     72,'BL',  0.86130,  3.04850,  0.00000,   0.00,   0.00,   0.00,0.00000,  0.000, 0.00000, 0.00000, 0.00000, 0.00000, 1
     59,     92,'BL',  0.00700,  0.56780,  0.00000,   0.00,   0.00,   0.00,0.00000,  0.000, 0.00000, 0.00000, 0.00000, 0.00000, 1
     59,    107,'BL',  0.03720,  0.88340,  0.00000,   0.00,   0.00,   0.00,0.00000,  0.000, 0.00000, 0.00000, 0.00000, 0.00000, 1
...
0 / END OF BRANCH DATA, BEGIN TRANSFORMER ADJUSTMENT DATA
0 / END OF TRANSFORMER ADJUSTMENT DATA, BEGIN AREA DATA
   1,      0,     0.0,  3.000,'            '
0 / END OF AREA DATA, BEGIN TWO-TERMINAL DC DATA
0 / END OF TWO-TERMINAL DC DATA, BEGIN SWITCHED SHUNT DATA
0 / END OF SWITCHED SHUNT DATA, BEGIN IMPEDANCE CORRECTION DATA
0 / END OF IMPEDANCE CORRECTION DATA, BEGIN MULTI-TERMINAL DC DATA
0 / END OF MULTI-TERMINAL DC DATA, BEGIN MULTI-SECTION LINE DATA
0 / END OF MULTI-SECTION LINE DATA, BEGIN ZONE DATA
    2,'ZONE_2      '
0 / END OF ZONE DATA, BEGIN INTER-AREA TRANSFER DATA
0 / END OF INTER-AREA TRANSFER DATA, BEGIN OWNER DATA
    1,'OWNER_1     '
0 / END OF OWNER DATA, BEGIN FACTS DEVICE DATA
